@<TRIPOS>MOLECULE
LM2
   45    47     1     0     0
SMALL
rc


@<TRIPOS>ATOM
      1 C1          -4.9300   -41.0520     1.3000 c3         1 LM2      -0.071262
      2 O1          -4.4820   -39.7070     1.6090 os         1 LM2      -0.400090
      3 C2          -5.3200   -38.6350     1.9050 ca         1 LM2       0.561206
      4 C3          -6.6370   -38.8450     2.3540 ca         1 LM2      -0.396273
      5 C4          -7.4890   -37.7630     2.5860 ca         1 LM2      -0.122309
      6 C5          -7.0710   -36.4390     2.3700 ca         1 LM2      -0.209654
      7 C6          -5.7310   -36.2450     1.9710 ca         1 LM2       0.092147
      8 C7          -4.8250   -37.3100     1.7630 cp         1 LM2      -0.311712
      9 C8          -3.3960   -36.9890     1.4380 cp         1 LM2      -0.176901
     10 C9          -2.3140   -37.5860     2.1390 ca         1 LM2       0.161323
     11 C10         -0.9970   -37.2260     1.8290 ca         1 LM2      -0.524304
     12 C11         -0.7680   -36.2780     0.8220 ca         1 LM2       0.415937
     13 N1          -1.7870   -35.6680     0.1580 nb         1 LM2      -0.681107
     14 C12         -3.0690   -36.0220     0.4480 ca         1 LM2       0.427481
     15 C13         -7.9630   -35.2430     2.6420 ce         1 LM2       0.309938
     16 N2          -7.6230   -34.0530     2.2670 n2         1 LM2      -0.519442
     17 N3          -8.4880   -33.1230     2.7790 n          1 LM2       0.179322
     18 C14         -8.1990   -31.6740     2.8130 c3         1 LM2      -0.341478
     19 C15         -7.2830   -31.2290     3.9770 c3         1 LM2       0.759166
     20 F1          -7.8700   -31.4900     5.1620 f          1 LM2      -0.235084
     21 F2          -6.0800   -31.8320     3.9710 f          1 LM2      -0.235084
     22 F3          -7.0610   -29.8990     3.9280 f          1 LM2      -0.235084
     23 C16         -9.5230   -33.7170     3.4080 c          1 LM2       0.381050
     24 O2         -10.4350   -33.1370     3.9740 o          1 LM2      -0.556355
     25 C17         -9.2750   -35.2100     3.4400 c3         1 LM2       0.322160
     26 C18         -9.1300   -35.6860     4.9200 c3         1 LM2      -0.463646
     27 C19        -10.4610   -35.8930     2.7030 c3         1 LM2      -0.463646
     28 H1          -4.0640   -41.6470     1.0030 h1         1 LM2       0.097965
     29 H2          -5.6470   -41.0310     0.4760 h1         1 LM2       0.097965
     30 H3          -5.3870   -41.5240     2.1750 h1         1 LM2       0.097965
     31 H4          -7.0100   -39.8530     2.5220 ha         1 LM2       0.189225
     32 H5          -8.4930   -37.9900     2.9180 ha         1 LM2       0.185520
     33 H6          -5.3500   -35.2340     1.8460 ha         1 LM2       0.120796
     34 H7          -2.4910   -38.3210     2.9240 ha         1 LM2       0.113391
     35 H8          -0.1640   -37.6820     2.3590 ha         1 LM2       0.203938
     36 H9           0.2550   -36.0210     0.5620 h4         1 LM2       0.063896
     37 H10         -3.8710   -35.5070    -0.0800 h4         1 LM2       0.046330
     38 H11         -9.1270   -31.0990     2.8880 h1         1 LM2       0.165716
     39 H12         -7.7590   -31.3810     1.8570 h1         1 LM2       0.165716
     40 H13         -8.8300   -36.7320     5.0010 hc         1 LM2       0.130880
     41 H14        -10.0720   -35.5740     5.4630 hc         1 LM2       0.130880
     42 H15         -8.3770   -35.0880     5.4440 hc         1 LM2       0.130880
     43 H16        -11.4100   -35.7180     3.2190 hc         1 LM2       0.130880
     44 H17        -10.3420   -36.9720     2.6320 hc         1 LM2       0.130880
     45 H18        -10.5620   -35.4970     1.6880 hc         1 LM2       0.130880
@<TRIPOS>BOND
     1     1     2 1   
     2     1    28 1   
     3     1    29 1   
     4     1    30 1   
     5     2     3 1   
     6     3     4 ar  
     7     3     8 ar  
     8     4     5 ar  
     9     4    31 1   
    10     5     6 ar  
    11     5    32 1   
    12     6     7 ar  
    13     6    15 1   
    14     7     8 ar  
    15     7    33 1   
    16     8     9 1   
    17     9    10 ar  
    18     9    14 ar  
    19    10    11 ar  
    20    10    34 1   
    21    11    12 ar  
    22    11    35 1   
    23    12    13 ar  
    24    12    36 1   
    25    13    14 ar  
    26    14    37 1   
    27    15    16 2   
    28    15    25 1   
    29    16    17 1   
    30    17    18 1   
    31    17    23 1   
    32    18    19 1   
    33    18    38 1   
    34    18    39 1   
    35    19    20 1   
    36    19    21 1   
    37    19    22 1   
    38    23    24 2   
    39    23    25 1   
    40    25    26 1   
    41    25    27 1   
    42    26    40 1   
    43    26    41 1   
    44    26    42 1   
    45    27    43 1   
    46    27    44 1   
    47    27    45 1   
@<TRIPOS>SUBSTRUCTURE
     1 LM2         1 TEMP              0 ****  ****    0 ROOT
