@<TRIPOS>MOLECULE
C03
   48    50     1     0     0
SMALL
rc


@<TRIPOS>ATOM
      1 C1          -2.1590   -37.7540     2.0540 ca         1 C03       0.172773
      2 C2          -0.8240   -37.4100     1.8240 ca         1 C03      -0.561122
      3 C3          -0.5260   -36.4300     0.8690 ca         1 C03       0.466549
      4 N1          -1.4920   -35.7940     0.1590 nb         1 C03      -0.705444
      5 C4          -2.7950   -36.1240     0.3700 ca         1 C03       0.465218
      6 C5          -3.1890   -37.1150     1.3090 cp         1 C03      -0.172219
      7 C6          -4.6340   -37.4370     1.5330 cp         1 C03      -0.380679
      8 C7          -5.5230   -36.3760     1.8200 ca         1 C03       0.181162
      9 C8          -6.8780   -36.5870     2.1590 ca         1 C03      -0.246647
     10 C9          -7.3340   -37.9170     2.1920 ca         1 C03      -0.122332
     11 C10         -6.4970   -38.9760     1.8490 ca         1 C03      -0.407377
     12 C11         -5.1520   -38.7620     1.5080 ca         1 C03       0.581717
     13 C12         -7.7430   -35.4230     2.5950 ce         1 C03       0.299159
     14 N2          -7.2730   -34.2210     2.6430 n2         1 C03      -0.485068
     15 N3          -8.2160   -33.3440     3.1210 n          1 C03       0.002382
     16 C13         -9.3980   -33.9750     3.3020 c          1 C03       0.377563
     17 C14         -9.1910   -35.4670     3.0890 c3         1 C03       0.393859
     18 C15         -7.9260   -31.9550     3.5640 c3         1 C03       0.421513
     19 C16         -7.4590   -31.9100     5.0430 c3         1 C03      -0.447139
     20 C17         -6.9060   -31.2390     2.6560 c3         1 C03      -0.447139
     21 O1         -10.4120   -33.4570     3.7410 o          1 C03      -0.577502
     22 C18         -9.3130   -36.2000     4.4600 c3         1 C03      -0.411238
     23 C19        -10.2250   -35.9920     2.0480 c3         1 C03      -0.411238
     24 H1          -8.3420   -38.1720     2.4860 ha         1 C03       0.191244
     25 H2          -6.9180   -39.9790     1.8700 ha         1 C03       0.180269
     26 O2          -4.3160   -39.8220     1.1560 os         1 C03      -0.354569
     27 H3          -5.1220   -35.3640     1.8180 ha         1 C03       0.079331
     28 C20         -4.7600   -41.1140     0.6530 c3         1 C03      -0.051313
     29 H4          -2.3910   -38.5150     2.7990 ha         1 C03       0.116698
     30 H5          -0.0300   -37.9030     2.3800 ha         1 C03       0.205286
     31 H6           0.5120   -36.1660     0.6840 h4         1 C03       0.043092
     32 H7          -3.5520   -35.5960    -0.2110 h4         1 C03       0.031120
     33 H8          -8.8420   -31.3700     3.4880 h1         1 C03       0.015600
     34 H9          -6.5390   -32.4840     5.1910 hc         1 C03       0.113942
     35 H10         -7.2770   -30.8810     5.3610 hc         1 C03       0.113942
     36 H11         -8.2240   -32.3260     5.7010 hc         1 C03       0.113942
     37 H12         -7.2030   -31.2910     1.6020 hc         1 C03       0.113942
     38 H13         -6.8140   -30.1840     2.9230 hc         1 C03       0.113942
     39 H14         -5.9100   -31.6840     2.7450 hc         1 C03       0.113942
     40 H15         -9.0840   -37.2630     4.3960 hc         1 C03       0.104991
     41 H16         -8.6310   -35.7620     5.1940 hc         1 C03       0.104991
     42 H17        -10.3280   -36.1130     4.8530 hc         1 C03       0.104991
     43 H18        -11.2480   -35.8130     2.3940 hc         1 C03       0.104991
     44 H19        -10.1180   -35.4780     1.0870 hc         1 C03       0.104991
     45 H20        -10.1330   -37.0620     1.8600 hc         1 C03       0.104991
     46 H21         -5.4080   -40.9840    -0.2160 h1         1 C03       0.080963
     47 H22         -3.8840   -41.6860     0.3430 h1         1 C03       0.080963
     48 H23         -5.2770   -41.6780     1.4330 h1         1 C03       0.080963
@<TRIPOS>BOND
     1     1     2 ar  
     2     1     6 ar  
     3     1    29 1   
     4     2     3 ar  
     5     2    30 1   
     6     3     4 ar  
     7     3    31 1   
     8     4     5 ar  
     9     5     6 ar  
    10     5    32 1   
    11     6     7 1   
    12     7     8 ar  
    13     7    12 ar  
    14     8     9 ar  
    15     8    27 1   
    16     9    10 ar  
    17     9    13 1   
    18    10    11 ar  
    19    10    24 1   
    20    11    12 ar  
    21    11    25 1   
    22    12    26 1   
    23    13    14 2   
    24    13    17 1   
    25    14    15 1   
    26    15    16 1   
    27    15    18 1   
    28    16    17 1   
    29    16    21 2   
    30    17    22 1   
    31    17    23 1   
    32    18    19 1   
    33    18    20 1   
    34    18    33 1   
    35    19    34 1   
    36    19    35 1   
    37    19    36 1   
    38    20    37 1   
    39    20    38 1   
    40    20    39 1   
    41    22    40 1   
    42    22    41 1   
    43    22    42 1   
    44    23    43 1   
    45    23    44 1   
    46    23    45 1   
    47    26    28 1   
    48    28    46 1   
    49    28    47 1   
    50    28    48 1   
@<TRIPOS>SUBSTRUCTURE
     1 C03         1 TEMP              0 ****  ****    0 ROOT
