@<TRIPOS>MOLECULE
C98
   35    37     1     0     0
SMALL
rc


@<TRIPOS>ATOM
      1 C1          -2.5780   -37.7610     2.5470 ca         1 C98       0.189689
      2 C2          -1.3620   -37.0740     2.4480 ca         1 C98      -0.580368
      3 C3          -1.2000   -36.1270     1.4270 ca         1 C98       0.464874
      4 N1          -2.1900   -35.8440     0.5390 nb         1 C98      -0.692593
      5 C4          -3.3800   -36.4960     0.6440 ca         1 C98       0.420711
      6 C5          -3.6280   -37.4890     1.6310 cp         1 C98      -0.133211
      7 C6          -4.9410   -38.2140     1.7300 cp         1 C98      -0.398614
      8 C7          -4.9740   -39.6310     1.6560 ca         1 C98       0.031266
      9 C8          -6.1650   -40.3560     1.8550 ca         1 C98      -0.023285
     10 C9          -7.3240   -39.6650     2.2240 ca         1 C98      -0.130492
     11 C10         -7.3320   -38.2690     2.2660 ca         1 C98      -0.434926
     12 C11         -6.1700   -37.5350     1.9580 ca         1 C98       0.583055
     13 C12         -6.2210   -41.8690     1.6490 c3         1 C98      -0.257795
     14 O1          -6.1870   -36.1430     1.9200 os         1 C98      -0.343958
     15 C13         -7.3320   -35.3220     1.5740 c3         1 C98      -0.034093
     16 C14         -5.9430   -42.2600     0.2090 cc         1 C98       0.348936
     17 N2          -6.9700   -42.2920    -0.8580 nd         1 C98      -0.314011
     18 N3          -6.4880   -42.6510    -1.9880 nd         1 C98      -0.437988
     19 C15         -5.0380   -42.9270    -1.9040 cc         1 C98       0.645481
     20 S1          -4.3330   -42.6890    -0.3240 ss         1 C98      -0.151209
     21 N4          -4.2620   -43.2950    -2.9580 nh         1 C98      -0.910507
     22 H1          -2.7020   -38.4990     3.3360 ha         1 C98       0.094497
     23 H2          -0.5570   -37.2720     3.1520 ha         1 C98       0.212357
     24 H3          -0.2550   -35.5930     1.3520 h4         1 C98       0.042529
     25 H4          -4.1570   -36.2510    -0.0730 h4         1 C98       0.052368
     26 H5          -4.0530   -40.1670     1.4420 ha         1 C98       0.117295
     27 H6          -8.2480   -40.2000     2.4360 ha         1 C98       0.179154
     28 H7          -8.2620   -37.7710     2.5210 ha         1 C98       0.202544
     29 H8          -5.5030   -42.3590     2.3130 hc         1 C98       0.121472
     30 H9          -7.2010   -42.2670     1.9300 hc         1 C98       0.121472
     31 H10         -7.0090   -34.2820     1.4840 h1         1 C98       0.074159
     32 H11         -7.7500   -35.6450     0.6170 h1         1 C98       0.074159
     33 H12         -8.0960   -35.3810     2.3520 h1         1 C98       0.074159
     34 H13         -3.3100   -43.5940    -2.7720 hn         1 C98       0.396436
     35 H14         -4.5670   -43.1110    -3.9130 hn         1 C98       0.396436
@<TRIPOS>BOND
     1     1     2 ar  
     2     1     6 ar  
     3     1    22 1   
     4     2     3 ar  
     5     2    23 1   
     6     3     4 ar  
     7     3    24 1   
     8     4     5 ar  
     9     5     6 ar  
    10     5    25 1   
    11     6     7 1   
    12     7     8 ar  
    13     7    12 ar  
    14     8     9 ar  
    15     8    26 1   
    16     9    10 ar  
    17     9    13 1   
    18    10    11 ar  
    19    10    27 1   
    20    11    12 ar  
    21    11    28 1   
    22    12    14 1   
    23    13    16 1   
    24    13    29 1   
    25    13    30 1   
    26    14    15 1   
    27    15    31 1   
    28    15    32 1   
    29    15    33 1   
    30    16    17 2   
    31    16    20 1   
    32    17    18 1   
    33    18    19 2   
    34    19    20 1   
    35    19    21 1   
    36    21    34 1   
    37    21    35 1   
@<TRIPOS>SUBSTRUCTURE
     1 C98         1 TEMP              0 ****  ****    0 ROOT
