@<TRIPOS>MOLECULE
LM1
   57    59     1     0     0
SMALL
rc


@<TRIPOS>ATOM
      1 C1          -1.9250   -36.2160     1.1370 c3         1 LM1      -0.084338
      2 C2          -3.3200   -36.8910     1.2130 c3         1 LM1       0.141240
      3 C3          -3.8300   -37.2190     2.6500 c3         1 LM1      -0.239586
      4 C4          -3.3090   -38.5420     3.3270 c3         1 LM1       0.017925
      5 C5          -3.8740   -38.7650     4.7620 c3         1 LM1      -0.525628
      6 C6          -1.7940   -38.5560     3.4520 c          1 LM1       0.433329
      7 O1          -1.1220   -37.7080     4.0110 o          1 LM1      -0.572830
      8 N1          -1.3410   -39.7180     2.9270 n          1 LM1       0.323966
      9 N2          -2.3700   -40.4290     2.3720 n2         1 LM1      -0.667912
     10 C7          -3.4900   -39.8070     2.4850 ce         1 LM1       0.433592
     11 C8          -4.7490   -40.3190     1.8150 ca         1 LM1      -0.069022
     12 C9          -4.6600   -41.2810     0.7770 ca         1 LM1      -0.032418
     13 C10         -5.7960   -41.8150     0.1140 cp         1 LM1      -0.214258
     14 C11         -7.0680   -41.3420     0.5490 ca         1 LM1       0.459003
     15 O2          -8.2520   -41.7890    -0.0090 os         1 LM1      -0.433239
     16 C12         -8.9180   -42.9510     0.5350 c3         1 LM1       0.063900
     17 C13         -7.1750   -40.3860     1.5680 ca         1 LM1      -0.318718
     18 C14         -6.0340   -39.8760     2.1870 ca         1 LM1      -0.188787
     19 C15         -5.6240   -42.8200    -1.0020 cp         1 LM1      -0.138702
     20 C16         -4.6520   -43.8570    -0.9260 ca         1 LM1       0.145752
     21 C17         -4.4900   -44.7600    -1.9870 ca         1 LM1      -0.519253
     22 C18         -5.3100   -44.6360    -3.1140 ca         1 LM1       0.429751
     23 N3          -6.2590   -43.6690    -3.2110 nb         1 LM1      -0.678978
     24 C19         -6.4080   -42.7800    -2.1910 ca         1 LM1       0.452680
     25 C20          0.0400   -40.2560     2.9900 c3         1 LM1       0.187929
     26 C21          1.0770   -39.3060     2.3360 c3         1 LM1      -0.491772
     27 C22          0.4070   -40.7050     4.4410 c3         1 LM1      -0.021581
     28 C23         -0.4760   -41.8470     4.9920 c3         1 LM1      -0.232803
     29 H1          -1.7550   -35.5330     1.9720 hc         1 LM1       0.021858
     30 H2          -1.8370   -35.6410     0.2130 hc         1 LM1       0.021858
     31 H3          -1.1320   -36.9650     1.1350 hc         1 LM1       0.021858
     32 H4          -3.3160   -37.7870     0.5910 hc         1 LM1      -0.031106
     33 H5          -4.0380   -36.2170     0.7420 hc         1 LM1      -0.031106
     34 H6          -4.9190   -37.2520     2.5960 hc         1 LM1       0.100514
     35 H7          -3.6140   -36.3720     3.3090 hc         1 LM1       0.100514
     36 H8          -3.5780   -37.9460     5.4220 hc         1 LM1       0.151636
     37 H9          -3.4920   -39.6920     5.2040 hc         1 LM1       0.151636
     38 H10         -4.9610   -38.8000     4.7850 hc         1 LM1       0.151636
     39 H11         -3.6790   -41.6200     0.4550 ha         1 LM1       0.114936
     40 H12         -9.8190   -43.1450    -0.0460 h1         1 LM1       0.053007
     41 H13         -9.1940   -42.7740     1.5760 h1         1 LM1       0.053007
     42 H14         -8.2680   -43.8260     0.4700 h1         1 LM1       0.053007
     43 H15         -8.1580   -40.0350     1.8800 ha         1 LM1       0.185481
     44 H16         -6.1810   -39.1330     2.9590 ha         1 LM1       0.191148
     45 H17         -4.0220   -43.9740    -0.0490 ha         1 LM1       0.103214
     46 H18         -3.7410   -45.5470    -1.9320 ha         1 LM1       0.198210
     47 H19         -5.1830   -45.3330    -3.9380 h4         1 LM1       0.043113
     48 H20         -7.1580   -42.0030    -2.3160 h4         1 LM1       0.036064
     49 H21          0.0530   -41.1520     2.3610 h1         1 LM1       0.045565
     50 H22          1.2640   -38.4380     2.9740 hc         1 LM1       0.120088
     51 H23          0.7290   -38.9580     1.3610 hc         1 LM1       0.120088
     52 H24          2.0340   -39.8010     2.1590 hc         1 LM1       0.120088
     53 H25          0.3290   -39.8510     5.1230 hc         1 LM1       0.043260
     54 H26          1.4510   -41.0290     4.4810 hc         1 LM1       0.043260
     55 H27         -1.4890   -41.4930     5.1940 hc         1 LM1       0.052642
     56 H28         -0.0810   -42.2490     5.9300 hc         1 LM1       0.052642
     57 H29         -0.5200   -42.6660     4.2680 hc         1 LM1       0.052642
@<TRIPOS>BOND
     1     1     2 1   
     2     1    29 1   
     3     1    30 1   
     4     1    31 1   
     5     2     3 1   
     6     2    32 1   
     7     2    33 1   
     8     3     4 1   
     9     3    34 1   
    10     3    35 1   
    11     4     5 1   
    12     4     6 1   
    13     4    10 1   
    14     5    36 1   
    15     5    37 1   
    16     5    38 1   
    17     6     7 2   
    18     6     8 1   
    19     8     9 1   
    20     8    25 1   
    21     9    10 2   
    22    10    11 1   
    23    11    12 ar  
    24    11    18 ar  
    25    12    13 ar  
    26    12    39 1   
    27    13    14 ar  
    28    13    19 1   
    29    14    15 1   
    30    14    17 ar  
    31    15    16 1   
    32    16    40 1   
    33    16    41 1   
    34    16    42 1   
    35    17    18 ar  
    36    17    43 1   
    37    18    44 1   
    38    19    20 ar  
    39    19    24 ar  
    40    20    21 ar  
    41    20    45 1   
    42    21    22 ar  
    43    21    46 1   
    44    22    23 ar  
    45    22    47 1   
    46    23    24 ar  
    47    24    48 1   
    48    25    26 1   
    49    25    27 1   
    50    25    49 1   
    51    26    50 1   
    52    26    51 1   
    53    26    52 1   
    54    27    28 1   
    55    27    53 1   
    56    27    54 1   
    57    28    55 1   
    58    28    56 1   
    59    28    57 1   
@<TRIPOS>SUBSTRUCTURE
     1 LM1         1 TEMP              0 ****  ****    0 ROOT
