@<TRIPOS>MOLECULE
LM3
   48    50     1     0     0
SMALL
rc


@<TRIPOS>ATOM
      1 C1          -9.4290   -42.4670     0.3250 c3         1 LM3      -0.068600
      2 O1          -8.1010   -42.8950     0.7030 os         1 LM3      -0.409441
      3 C2          -7.1410   -41.9970     1.1430 ca         1 LM3       0.438996
      4 C3          -7.3790   -41.2490     2.3140 ca         1 LM3      -0.391763
      5 C4          -6.4140   -40.3620     2.7940 ca         1 LM3      -0.087161
      6 C5          -5.1870   -40.2320     2.1280 ca         1 LM3      -0.048283
      7 C6          -4.9430   -40.9770     0.9610 ca         1 LM3      -0.122719
      8 C7          -5.9140   -41.8680     0.4300 cp         1 LM3      -0.139314
      9 C8          -5.6330   -42.6500    -0.8290 cp         1 LM3      -0.218743
     10 C9          -4.4720   -43.4560    -0.9620 ca         1 LM3       0.178768
     11 C10         -4.2550   -44.1850    -2.1410 ca         1 LM3      -0.551653
     12 C11         -5.1950   -44.1090    -3.1760 ca         1 LM3       0.444870
     13 N1          -6.3170   -43.3500    -3.0760 nb         1 LM3      -0.695068
     14 C12         -6.5240   -42.6330    -1.9390 ca         1 LM3       0.446109
     15 C13         -4.1620   -39.2790     2.6360 ce         1 LM3       0.267161
     16 N2          -3.9420   -38.1570     2.0460 n2         1 LM3      -0.468091
     17 N3          -2.8730   -37.5420     2.6440 n          1 LM3       0.125930
     18 C14         -2.1710   -36.3830     2.0380 c3         1 LM3      -0.512622
     19 C15         -1.3200   -36.6560     0.7600 c3         1 LM3       0.817952
     20 C16         -0.6710   -38.0690     0.6780 c3         1 LM3      -0.611496
     21 F1          -2.0890   -36.4240    -0.3180 f          1 LM3      -0.291486
     22 F2          -0.3390   -35.7360     0.6950 f          1 LM3      -0.291486
     23 C17         -2.3790   -38.2750     3.6770 c          1 LM3       0.436783
     24 O2          -1.2640   -38.1260     4.1480 o          1 LM3      -0.567497
     25 C18         -3.2450   -39.5210     3.8290 c3         1 LM3       0.243192
     26 C19         -2.4090   -40.8210     3.6600 c3         1 LM3      -0.422112
     27 C20         -4.0040   -39.5140     5.1930 c3         1 LM3      -0.422112
     28 H1          -9.9880   -42.1440     1.2040 h1         1 LM3       0.097843
     29 H2          -9.9510   -43.3100    -0.1320 h1         1 LM3       0.097843
     30 H3          -9.3740   -41.6460    -0.3970 h1         1 LM3       0.097843
     31 H4          -8.3160   -41.3580     2.8570 ha         1 LM3       0.219018
     32 H5          -6.6240   -39.7760     3.6850 ha         1 LM3       0.147952
     33 H6          -3.9850   -40.8530     0.4560 ha         1 LM3       0.141598
     34 H7          -3.7400   -43.5190    -0.1590 ha         1 LM3       0.103677
     35 H8          -3.3670   -44.8020    -2.2550 ha         1 LM3       0.209983
     36 H9          -5.0170   -44.6640    -4.0930 h4         1 LM3       0.059922
     37 H10         -7.4180   -42.0170    -1.8940 h4         1 LM3       0.054486
     38 H11         -1.5310   -35.9180     2.7930 h1         1 LM3       0.206280
     39 H12         -2.9220   -35.6160     1.8160 h1         1 LM3       0.206280
     40 H13         -0.0640   -38.2680     1.5660 hc         1 LM3       0.176863
     41 H14         -0.0210   -38.1690    -0.1940 hc         1 LM3       0.176863
     42 H15         -1.4280   -38.8550     0.6040 hc         1 LM3       0.176863
     43 H16         -3.0500   -41.7060     3.6510 hc         1 LM3       0.124429
     44 H17         -1.6980   -40.9330     4.4830 hc         1 LM3       0.124429
     45 H18         -1.8420   -40.8030     2.7260 hc         1 LM3       0.124429
     46 H19         -4.6140   -38.6120     5.3060 hc         1 LM3       0.124429
     47 H20         -3.3130   -39.5480     6.0400 hc         1 LM3       0.124429
     48 H21         -4.6610   -40.3820     5.2880 hc         1 LM3       0.124429
@<TRIPOS>BOND
     1     1     2 1   
     2     1    28 1   
     3     1    29 1   
     4     1    30 1   
     5     2     3 1   
     6     3     4 ar  
     7     3     8 ar  
     8     4     5 ar  
     9     4    31 1   
    10     5     6 ar  
    11     5    32 1   
    12     6     7 ar  
    13     6    15 1   
    14     7     8 ar  
    15     7    33 1   
    16     8     9 1   
    17     9    10 ar  
    18     9    14 ar  
    19    10    11 ar  
    20    10    34 1   
    21    11    12 ar  
    22    11    35 1   
    23    12    13 ar  
    24    12    36 1   
    25    13    14 ar  
    26    14    37 1   
    27    15    16 2   
    28    15    25 1   
    29    16    17 1   
    30    17    18 1   
    31    17    23 1   
    32    18    19 1   
    33    18    38 1   
    34    18    39 1   
    35    19    20 1   
    36    19    21 1   
    37    19    22 1   
    38    20    40 1   
    39    20    41 1   
    40    20    42 1   
    41    23    24 2   
    42    23    25 1   
    43    25    26 1   
    44    25    27 1   
    45    26    43 1   
    46    26    44 1   
    47    26    45 1   
    48    27    46 1   
    49    27    47 1   
    50    27    48 1   
@<TRIPOS>SUBSTRUCTURE
     1 LM3         1 TEMP              0 ****  ****    0 ROOT
