@<TRIPOS>MOLECULE
LM4
   48    50     1     0     0
SMALL
rc


@<TRIPOS>ATOM
      1 O1          -5.2010   -39.5420     2.0840 os         1 LM4      -0.436504
      2 C1          -6.0210   -38.4180     2.0910 ca         1 LM4       0.520512
      3 C2          -7.3780   -38.5650     2.4090 ca         1 LM4      -0.465362
      4 C3          -8.2270   -37.4600     2.4510 ca         1 LM4       0.021059
      5 C4          -7.7530   -36.1600     2.1900 ca         1 LM4      -0.187435
      6 C5          -6.3950   -36.0280     1.8120 ca         1 LM4      -0.051046
      7 C6          -5.4920   -37.1280     1.7960 cp         1 LM4      -0.223765
      8 C7          -4.0200   -36.8820     1.5750 cp         1 LM4      -0.119474
      9 C8          -3.0600   -37.2780     2.5450 ca         1 LM4       0.133975
     10 C9          -1.6990   -37.0210     2.3420 ca         1 LM4      -0.507844
     11 C10         -1.2970   -36.3640     1.1710 ca         1 LM4       0.402329
     12 N1          -2.1870   -35.9690     0.2210 nb         1 LM4      -0.672631
     13 C11         -3.5160   -36.2160     0.4210 ca         1 LM4       0.381699
     14 C12         -8.6580   -34.9760     2.4840 ce         1 LM4       0.337633
     15 C13         -5.4800   -40.6940     1.2360 c3         1 LM4      -0.018552
     16 C14         -9.5790   -33.0710     3.4190 c          1 LM4       0.434218
     17 C15         -8.2270   -33.5750     2.9360 c3         1 LM4       0.335968
     18 N2          -9.9480   -35.0910     2.5150 n2         1 LM4      -0.511918
     19 N3         -10.5250   -33.9910     3.1030 n          1 LM4      -0.066606
     20 C16         -7.7390   -32.6690     1.7710 c3         1 LM4      -0.513192
     21 C17         -7.2140   -33.5850     4.1160 c3         1 LM4      -0.513192
     22 C18        -11.9770   -33.8550     3.4370 c3         1 LM4       0.364108
     23 C19        -12.6970   -32.8840     2.4520 c3         1 LM4       0.106677
     24 F1         -13.9570   -32.6230     2.8580 f          1 LM4      -0.251554
     25 C20        -12.7240   -35.2210     3.5540 c3         1 LM4      -0.421150
     26 O2          -9.7780   -32.0330     4.0310 o          1 LM4      -0.581343
     27 H1          -7.7860   -39.5420     2.6370 ha         1 LM4       0.228424
     28 H2          -9.2640   -37.6400     2.7310 ha         1 LM4       0.136886
     29 H3          -6.0040   -35.0470     1.5840 ha         1 LM4       0.105671
     30 H4          -3.3700   -37.7840     3.4560 ha         1 LM4       0.110667
     31 H5          -0.9680   -37.3290     3.0850 ha         1 LM4       0.204946
     32 H6          -0.2360   -36.1760     1.0140 h4         1 LM4       0.068026
     33 H7          -4.2100   -35.8820    -0.3470 h4         1 LM4       0.059317
     34 H8          -5.7700   -40.3690     0.2310 h1         1 LM4       0.086639
     35 H9          -6.2880   -41.2950     1.6660 h1         1 LM4       0.086639
     36 H10         -4.5850   -41.3150     1.1580 h1         1 LM4       0.086639
     37 H11         -6.7610   -32.9690     1.3880 hc         1 LM4       0.145402
     38 H12         -7.6560   -31.6270     2.0960 hc         1 LM4       0.145402
     39 H13         -8.4510   -32.6930     0.9390 hc         1 LM4       0.145402
     40 H14         -6.2500   -33.9980     3.8170 hc         1 LM4       0.145402
     41 H15         -7.5860   -34.1920     4.9450 hc         1 LM4       0.145402
     42 H16         -7.0250   -32.5800     4.5020 hc         1 LM4       0.145402
     43 H17        -12.0390   -33.4120     4.4360 h1         1 LM4       0.015110
     44 H18        -12.7340   -33.3080     1.4450 h1         1 LM4       0.047241
     45 H19        -12.1640   -31.9310     2.3900 h1         1 LM4       0.047241
     46 H20        -13.7410   -35.0820     3.9280 hc         1 LM4       0.115843
     47 H21        -12.2110   -35.8860     4.2530 hc         1 LM4       0.115843
     48 H22        -12.7890   -35.7260     2.5870 hc         1 LM4       0.115843
@<TRIPOS>BOND
     1     1     2 1   
     2     1    15 1   
     3     2     3 ar  
     4     2     7 ar  
     5     3     4 ar  
     6     3    27 1   
     7     4     5 ar  
     8     4    28 1   
     9     5     6 ar  
    10     5    14 1   
    11     6     7 ar  
    12     6    29 1   
    13     7     8 1   
    14     8     9 ar  
    15     8    13 ar  
    16     9    10 ar  
    17     9    30 1   
    18    10    11 ar  
    19    10    31 1   
    20    11    12 ar  
    21    11    32 1   
    22    12    13 ar  
    23    13    33 1   
    24    14    17 1   
    25    14    18 2   
    26    15    34 1   
    27    15    35 1   
    28    15    36 1   
    29    16    17 1   
    30    16    19 1   
    31    16    26 2   
    32    17    20 1   
    33    17    21 1   
    34    18    19 1   
    35    19    22 1   
    36    20    37 1   
    37    20    38 1   
    38    20    39 1   
    39    21    40 1   
    40    21    41 1   
    41    21    42 1   
    42    22    23 1   
    43    22    25 1   
    44    22    43 1   
    45    23    24 1   
    46    23    44 1   
    47    23    45 1   
    48    25    46 1   
    49    25    47 1   
    50    25    48 1   
@<TRIPOS>SUBSTRUCTURE
     1 LM4         1 TEMP              0 ****  ****    0 ROOT
